*Heading
** Job name: Quadstep1 Model name: Model-1
** Generated by: Abaqus/CAE 2024
*Preprint, echo=NO, model=NO, history=NO, contact=NO
**
** PARTS
**
*Part, name=chair
*Node
      1,  -3.95591617,   15.8665047,        -500.
      2,  -3.95591617,   15.8665047,           0.
      3,  -5.56172132,   22.3071136,           0.
      4,  -5.56172132,   22.3071136,        -500.
      5,   3.42551327,   5.79068518,        -500.
      6,   3.42551327,   5.79068518,           0.
      7,   15.7508831,   3.76759076,        -500.
      8,   15.7508831,   3.76759076,           0.
      9,         410.,           0.,        -500.
     10,         410.,           0.,           0.
     11,         450.,          40.,        -500.
     12,         450.,          40.,           0.
     13,         450.,    414.48999,        -500.
     14,         450.,    414.48999,           0.
     15,   410.004059,    454.48999,        -500.
     16,   410.004059,    454.48999,           0.
     17,    125.87635,    452.83432,        -500.
     18,   -7.1943121,   600.997131,        -500.
     19,   -7.1943121,   600.997131,           0.
     20,    125.87635,    452.83432,           0.
** ... 4840 like lines cut
*Element, type=S8R
 1,    1,   25,   62,    4, 1653, 1654, 1655, 1656
 2,   25,   26,   61,   62, 1657, 1658, 1659, 1654
 3,   26,   27,   60,   61, 1660, 1661, 1662, 1658
 4,   27,   28,   59,   60, 1663, 1664, 1665, 1661
 5,   28,   29,   58,   59, 1666, 1667, 1668, 1664
 6,   29,   30,   57,   58, 1669, 1670, 1671, 1667
 7,   30,   31,   56,   57, 1672, 1673, 1674, 1670
 8,   31,   32,   55,   56, 1675, 1676, 1677, 1673
 9,   32,   33,   54,   55, 1678, 1679, 1680, 1676
10,   33,   34,   53,   54, 1681, 1682, 1683, 1679
11,   34,   35,   52,   53, 1684, 1685, 1686, 1682
12,   35,   36,   51,   52, 1687, 1688, 1689, 1685
13,   36,   37,   50,   51, 1690, 1691, 1692, 1688
14,   37,   38,   49,   50, 1693, 1694, 1695, 1691
15,   38,   39,   48,   49, 1696, 1697, 1698, 1694
16,   39,   40,   47,   48, 1699, 1700, 1701, 1697
17,   40,   41,   46,   47, 1702, 1703, 1704, 1700
18,   41,   42,   45,   46, 1705, 1706, 1707, 1703
19,   42,   43,   44,   45, 1708, 1709, 1710, 1706
20,   43,    2,    3,   44, 1711, 1712, 1713, 1709
** ... 1537 like lines cut
*Nset, nset=Set-1, generate
    1,  4860,     1
*Elset, elset=Set-1, generate
    1,  1557,     1
*Nset, nset=_PickedSet9, internal, generate
    1,  4860,     1
*Elset, elset=_PickedSet9, internal, generate
    1,  1557,     1
** Section: Section-1
*Shell Section, elset=_PickedSet9, material=Material-1
25., 5
*End Part
**  
**
** ASSEMBLY
**
*Assembly, name=Assembly
**  
*Instance, name=chair-1, part=chair
*End Instance
**  
*Nset, nset=BCS, instance=chair-1
    7,    8,    9,   10,   82,   83,   84,   85,   86,   87,   88,   89,   90,   91,   92,   93
   94,   95,   96,   97,   98,   99,  100,  116,  117,  118,  119,  120,  121,  122,  123,  124
  125,  126,  127,  128,  129,  130,  131,  132,  133,  134, 1756, 1759, 1761, 1763, 1765, 1767
 1769, 1771, 1773, 1775, 1777, 1779, 1781, 1783, 1785, 1787, 1789, 1791, 1793, 1795, 2412, 2415
 2417, 2419, 2421, 2423, 2425, 2427, 2429, 2431, 2433, 2435, 2437, 2439, 2441, 2443, 2445, 2447
 2449, 2451
*Elset, elset=BCS, instance=chair-1
  41,  42,  43,  44,  45,  46,  47,  48,  49,  50,  51,  52,  53,  54,  55,  56
  57,  58,  59,  60,  61,  62,  63,  64,  65,  66,  67,  68,  69,  70,  71,  72
  73,  74,  75,  76,  77,  78,  79,  80, 361, 362, 363, 364, 365, 366, 367, 368
 369, 370, 371, 372, 373, 374, 375, 376, 377, 378, 379, 380, 381, 384, 387, 390
 393, 396, 399, 402, 405, 408, 411, 414, 417, 420, 423, 426, 429, 432, 435, 438
*Elset, elset=_bottom_SPOS, internal, instance=chair-1, generate
  981,  1200,     1
*Surface, type=ELEMENT, name=bottom
_bottom_SPOS, SPOS
*End Assembly
** 
** MATERIALS
** 
*Material, name=Material-1
*Elastic
16000., 0.33
*Fail Stress
165.,225.,165.,225., 62.,  0.,  0.
** ----------------------------------------------------------------
** 
** STEP: Step-1
** 
*Step, name=Step-1, nlgeom=NO, perturbation
*Buckle, eigensolver=lanczos
5, , , , 
** 
** BOUNDARY CONDITIONS
** 
** Name: BC-1 Type: Symmetry/Antisymmetry/Encastre
*Boundary, op=NEW, load case=1
BCS, ENCASTRE
*Boundary, op=NEW, load case=2
BCS, ENCASTRE
** 
** LOADS
** 
** Name: Load-1   Type: Pressure
*Dsload
bottom, P, 1.62
** 
** OUTPUT REQUESTS
** 
*Restart, write, frequency=0
** 
** FIELD OUTPUT: F-Output-1
** 
*Output, field, variable=PRESELECT
*End Step
